*SPEF "IEEE 1481-1998"
*DESIGN "booth_multiplier"
*DATE "Wed Jun 24 13:45:18 2026"
*VENDOR "Cadence Design Systems, Inc."
*PROGRAM "Innovus"
*VERSION "21.15-s110_1"
*DESIGN_FLOW "PIN_CAP NONE" "NAME_SCOPE LOCAL"
*DIVIDER /
*DELIMITER :
*BUS_DELIMITER []
*T_UNIT 1 NS
*C_UNIT 1 PF
*R_UNIT 1 OHM
*L_UNIT 1 HENRY

// MMMC spef file for corner 'rc_corner'

*NAME_MAP

*1 clk
*2 load
*3 reset
*4 M[3]
*5 M[2]
*6 M[1]
*7 M[0]
*8 Q[3]
*9 Q[2]
*10 Q[1]
*11 Q[0]
*12 P[6]
*13 P[5]
*14 P[4]
*15 P[3]
*16 P[2]
*17 P[1]
*18 P[0]
*19 FE_DBTN1_load
*20 FE_DBTN0_reset
*21 Count[2]
*22 Count[1]
*23 Count[0]
*24 M_temp[3]
*25 M_temp[2]
*26 M_temp[1]
*27 M_temp[0]
*28 Q_minus_one
*29 n_1
*30 n_3
*31 n_4
*32 n_5
*33 n_6
*34 n_8
*35 n_9
*36 n_10
*37 n_14
*38 n_20
*39 n_21
*40 n_22
*41 n_26
*42 n_27
*43 n_28
*44 n_30
*45 n_34
*46 n_36
*47 n_37
*48 n_38
*49 n_39
*50 n_40
*51 n_41
*52 n_42
*53 n_44
*54 n_48
*55 n_50
*56 n_51
*57 n_52
*58 n_53
*59 n_56
*60 n_58
*61 n_59
*62 n_60
*63 n_67
*64 n_68
*65 n_69
*66 n_70
*67 n_71
*68 n_75
*69 n_76
*70 n_77
*71 n_79
*72 n_80
*73 n_85
*74 n_86
*75 n_87
*76 n_90
*77 n_91
*78 n_92
*79 n_93
*80 n_96
*81 n_97
*82 n_98
*83 n_124
*84 n_192
*85 n_193
*86 n_194
*87 n_199
*88 n_200
*89 n_214
*90 n_227
*91 n_229
*92 n_231
*93 n_232
*94 n_235
*95 n_236
*96 n_237
*97 n_238
*98 n_239
*99 n_240
*100 n_241
*101 n_242
*102 n_243
*103 n_245
*104 n_246
*105 n_247
*106 n_255
*107 n_257
*108 n_262
*109 n_275
*110 n_276
*111 n_277
*112 n_278
*113 n_307
*114 n_308
*115 n_309
*116 n_311
*117 n_313
*118 n_314
*119 n_316
*120 n_317
*121 n_318
*122 n_322
*123 n_323
*124 n_326
*125 n_327
*126 n_328
*127 n_329
*128 n_330
*129 n_331
*130 n_332
*131 n_333
*132 n_334
*133 n_335
*134 n_336
*135 n_337
*136 n_338
*137 n_352
*138 n_355
*139 n_356
*140 n_358
*141 n_359
*142 n_388
*143 n_389
*144 n_390
*145 n_391
*146 n_392
*147 n_393
*148 n_403
*149 n_404
*150 n_405
*151 n_407
*152 n_446
*153 n_448
*154 P[7]
*155 FE_DBTC1_load
*156 FE_DBTC0_reset
*157 A_reg\[2\]
*158 A_reg\[1\]
*159 A_reg\[0\]
*160 g10381__1617
*161 g10386__2802
*162 P_reg\[1\]
*163 P_reg\[2\]
*164 P_reg\[3\]
*165 Count_reg\[1\]
*166 g10385__5122
*167 P_reg\[0\]
*168 g10397__8246
*169 g10379__7098
*170 g10398__1881
*171 g10383__5115
*172 g10382__7482
*173 Count_reg\[0\]
*174 Q_minus_one_reg
*175 g10403__9315
*176 g10384__9945
*177 g10409__2346
*178 g10404__7410
*179 g10405__6417
*180 g10422__5477
*181 g10421__4319
*182 g10420__8428
*183 g10424__6783
*184 g10423__3680
*185 g10435__2802
*186 g10434__1705
*187 g10433__7098
*188 M_temp_reg\[3\]
*189 M_temp_reg\[2\]
*190 M_temp_reg\[0\]
*191 M_temp_reg\[1\]
*192 g10415__5115
*193 g10413
*194 Count_reg\[2\]
*195 g10436__4733
*196 g10432__6161
*197 g10431__9315
*198 g10438__9945
*199 g10437__2883
*200 g10439__2346
*201 g10442__6417
*202 g10441__5477
*203 g10440__2398
*204 g10443__5107
*205 g10449
*206 g10444__4319
*207 g10453__5526
*208 g10452__6783
*209 g10450__5122
*210 g10454__6131
*211 g10469__5115
*212 g10468__7482
*213 g10467__4733
*214 g10465__9315
*215 g10456__2883
*216 g10458__7410
*217 g10460__5477
*218 g10461__2398
*219 g10481
*220 g10480
*221 g10478
*222 g10477
*223 g10479
*224 g10484
*225 g10483
*226 fopt10502
*227 g123
*228 g124
*229 g126
*230 g131
*231 fopt10563
*232 g529
*233 g535
*234 g548
*235 g537
*236 g542
*237 g530
*238 g531
*239 g534
*240 g552
*241 g549
*242 g536
*243 g541
*244 g532
*245 g545
*246 g533
*247 g547
*248 g544
*249 g10570
*250 g133
*251 g10572
*252 g48
*253 g188
*254 g189
*255 g191
*256 g154
*257 g156
*258 g155
*259 g157
*260 g18
*261 g19
*262 g24
*263 g25
*264 g26
*265 g117
*266 g119
*267 g118
*268 g10588
*269 g10589
*270 g10590
*271 g10372__10591
*272 g10448__10592
*273 g10447__10593
*274 g546_dup
*275 g10446__10594
*276 g10399__10595
*277 g10445__10596
*278 g35
*279 g36
*280 fopt10604
*281 g10387__10606
*282 g10607
*283 g10417__10608
*284 g10451__10610
*285 g10633
*286 g10364__10634
*287 g10368__10635
*288 g10380__10636
*289 g10637
*290 fopt10638
*291 g10642
*292 g10643
*293 g10644
*294 g10645
*295 g10419__10514_dup10674
*296 g2


*PORTS

*1 I *C 23.345 52.78
*2 I *C 28.855 52.78
*3 I *C 53.94 29.725
*4 I *C 0 16.965
*5 I *C 0 22.185
*6 I *C 0 32.625
*7 I *C 0 27.405
*8 I *C 41.905 52.78
*9 I *C 53.94 37.845
*10 I *C 29.725 52.78
*11 I *C 30.305 52.78
*154 O *C 18.125 0
*12 O *C 18.705 0
*13 O *C 32.915 0
*14 O *C 53.94 25.375
*15 O *C 39.005 52.78
*16 O *C 30.015 52.78
*17 O *C 29.145 52.78
*18 O *C 53.94 30.305


*D_NET *1 0.0122231

*CONN
*I *159:CK I *C 39.875 22.475 *L 0.00179 *D DFFHQX1
*I *167:CK I *C 39.875 32.915 *L 0.00179 *D DFFHQX1
*I *164:CK I *C 39.875 40.745 *L 0.00179 *D DFFHQX1
*I *158:CK I *C 33.495 30.305 *L 0.00179 *D DFFHQX1
*I *174:CK I *C 27.695 22.765 *L 0.00174 *D DFFQX1
*I *157:CK I *C 16.675 22.185 *L 0.00176 *D DFFQX4
*I *188:CK I *C 14.065 19.865 *L 0.00179 *D DFFHQX1
*I *190:CK I *C 16.385 30.595 *L 0.00153 *D DFFHQX2
*I *165:CK I *C 9.715 38.135 *L 0.00179 *D DFFHQX1
*I *191:CK I *C 9.135 30.595 *L 0.00153 *D DFFHQX2
*I *189:CK I *C 9.715 25.375 *L 0.00153 *D DFFHQX2
*I *194:CK I *C 14.935 43.065 *L 0.00153 *D DFFHQX2
*I *173:CK I *C 19.865 43.645 *L 0.00178 *D MDFFHQX2
*P *1 I *C 23.345 52.78 *L 0
*I *162:CK I *C 28.275 38.135 *L 0.00179 *D DFFHQX1
*I *163:CK I *C 29.725 43.355 *L 0.00179 *D DFFHQX1

*CAP
1 *1:2 1.44549e-05
2 *1:3 1.44549e-05
3 *1:4 0.000374327
4 *1:5 0.000374327
5 *1:6 1.4676e-05
6 *1:7 0.000337548
7 *1:8 0.000146416
8 *1:9 0.000616393
9 *1:10 0.000541738
10 *1:11 1.46416e-05
11 *1:12 0.00029352
12 *1:13 0.000395322
13 *1:15 1.46416e-05
14 *1:16 0.000360194
15 *1:19 0.000360194
16 *1:21 0.000512789
17 *1:22 0.000526544
18 *1:23 0.000150225
19 *1:24 1.37551e-05
20 *1:25 0.000150225
21 *1:26 0.000394452
22 *1:27 0.000137551
23 *1:28 0.000367138
24 *1:29 2.73136e-05
25 *1:30 0.000137551
26 *1:31 1.38604e-05
27 *1:33 1.36568e-05
28 *1:34 0.00031879
29 *1:35 1.36568e-05
30 *1:37 0.00031879
31 *1:40 0.000244227
32 *1:41 4.15812e-05
33 *1:42 0.000244227
34 *1:43 0.0003524
35 *1:44 2.77208e-05
36 *1:45 1.37551e-05
37 *1:46 0.000582816
38 *1:48 1.37551e-05
39 *1:49 0.000230416
40 *1:53 0.000249487
41 *1:55 0.000485115
42 *1:56 0.000401952
43 *1:58 0.000166325
44 *1:59 2.71077e-05
45 *1:61 2.71077e-05
46 *1:62 2.71077e-05
47 *1:63 0.000450375
48 *1 0.000423268
49 *1:66 0.000241744
50 *1:67 0.000241744
51 *1:68 4.39247e-05
52 *1:69 0.00027819
53 *1:70 7.33801e-05
54 *1:71 0.000234265
55 *1:72 7.33801e-05
56 *1:74 2.92831e-05
57 *1:75 2.92831e-05

*RES
1 *1:75 *163:CK 1.4
2 *1:74 *1:75 0.248565
3 *1:72 *1:74 1.4
4 *1:71 *162:CK 1.4
5 *1:70 *1:72 0.621444
6 *1:69 *1:71 1.98852
7 *1:69 *1:70 1.4
8 *1:68 *1:69 0.372848
9 *1:67 *1:68 1.4
10 *1:66 *1:67 2.11291
11 *1:63 *1:66 1.4
12 *1:63 *1 3.91494
13 *1:62 *173:CK 1.4
14 *1:61 *1:63 0.248567
15 *1:59 *1:62 0.248567
16 *1:58 *1:61 1.4
17 *1:57 *194:CK 1.4
18 *1:56 *1:59 1.4
19 *1:56 *1:58 1.49146
20 *1:55 *1:57 1.4
21 *1:55 *1:56 2.11291
22 *1:53 *1:55 2.2372
23 *1:52 *189:CK 1.4
24 *1:49 *1:53 1.4
25 *1:48 *1:52 1.4
26 *1:47 *191:CK 1.4
27 *1:46 *165:CK 1.4
28 *1:46 *1:49 2.11282
29 *1:45 *1:48 0.124283
30 *1:44 *1:47 1.4
31 *1:43 *1:46 3.23137
32 *1:42 *1:45 1.4
33 *1:41 *1:44 0.248577
34 *1:41 *1:43 1.4
35 *1:40 *1:42 2.23712
36 *1:37 *1:41 0.124289
37 *1:37 *1:40 1.4
38 *1:36 *190:CK 1.4
39 *1:35 *188:CK 1.4
40 *1:34 *1:37 2.73435
41 *1:34 *1:36 1.4
42 *1:33 *1:35 0.124289
43 *1:31 *1:34 0.124289
44 *1:30 *1:33 1.4
45 *1:29 *157:CK 1.4
46 *1:28 *1:31 1.4
47 *1:27 *1:30 1.24283
48 *1:26 *1:29 0.248578
49 *1:26 *1:28 3.35572
50 *1:25 *1:27 1.4
51 *1:24 *1:26 1.4
52 *1:23 *1:25 1.36718
53 *1:22 *1:24 0.124283
54 *1:22 *1:23 1.4
55 *1:21 *1:22 4.59852
56 *1:19 *1:21 1.4
57 *1:19 *174:CK 1.4
58 *1:16 *1:19 3.10708
59 *1:15 *158:CK 1.4
60 *1:13 *164:CK 1.4
61 *1:12 *1:16 1.4
62 *1:11 *1:15 0.124283
63 *1:10 *167:CK 1.4
64 *1:10 *1:13 3.35563
65 *1:9 *1:12 2.48578
66 *1:9 *1:11 1.4
67 *1:8 *1:10 1.24283
68 *1:7 *1:9 2.73435
69 *1:7 *1:8 1.4
70 *1:6 *1:7 0.124289
71 *1:5 *1:6 1.4
72 *1:4 *1:5 3.23136
73 *1:3 *1:4 1.4
74 *1:2 *1:3 0.124289
75 *1:1 *1:2 1.4
76 *159:CK *1:1 1.4
*END

*D_NET *2 0.010238

*CONN
*I *294:B I *C 10.875 40.745 *L 0.011 *D NAND2X4
*I *263:B I *C 19.285 35.525 *L 0.00538 *D NOR2BX2
*I *230:A I *C 15.225 32.625 *L 0.0168 *D NAND2X6
*I *274:A I *C 24.505 32.915 *L 0.0215 *D NOR2X8
*I *279:B I *C 25.085 38.135 *L 0.0169 *D NOR3X6
*I *269:A I *C 26.245 27.695 *L 0.0215 *D NOR2X8
*I *295:B I *C 33.495 27.695 *L 0.0109 *D NOR2X4
*I *267:B I *C 30.305 27.115 *L 0.00285 *D NAND3X1
*I *245:A I *C 34.365 19.865 *L 0.0111 *D NOR2X4
*I *228:B I *C 33.205 32.915 *L 0.00552 *D NOR3X2
*I *285:C I *C 36.975 16.965 *L 0.0229 *D NOR3X8
*I *227:A0 I *C 29.435 35.525 *L 0.00261 *D AOI31X1
*I *257:B I *C 33.205 41.035 *L 0.0028 *D NOR2X1
*I *155:A I *C 38.715 38.135 *L 0.0156 *D CLKINVX6
*I *254:C I *C 40.455 43.355 *L 0.00278 *D NOR3X1
*P *2 I *C 28.855 52.78 *L 0

*CAP
1 *2:2 0.000124744
2 *2:3 0.000124744
3 *2:4 0.000243969
4 *2:5 0.000243969
5 *2:6 8.31625e-05
6 *2:7 0.000277208
7 *2:8 0.000443533
8 *2:9 0.000135539
9 *2:10 0.000277208
10 *2:12 0.000135539
11 *2:13 2.77208e-05
12 *2:14 0.000121985
13 *2:17 0.000121985
14 *2:18 0.000365954
15 *2:19 0.000121985
16 *2:21 0.000243969
17 *2:23 8.35703e-05
18 *2:24 0.000289035
19 *2:25 0.0003669
20 *2:27 0.000161436
21 *2:28 2.92831e-05
22 *2:30 1.46416e-05
23 *2:31 2.92831e-05
24 *2:33 1.46416e-05
25 *2:35 5.87041e-05
26 *2:36 4.40281e-05
27 *2:37 1.4676e-05
28 *2:38 0.000369752
29 *2:39 0.00027819
30 *2:40 0.000511085
31 *2:41 0.000409964
32 *2:43 0.000141333
33 *2:44 0.000131774
34 *2:46 0.000130094
35 *2:47 0.000205464
36 *2:48 0.000130094
37 *2:49 1.4676e-05
38 *2:50 0.000190788
39 *2:52 0.000146416
40 *2:55 0.000146416
41 *2:57 0.000264168
42 *2:58 0.000249492
43 *2:59 1.4676e-05
44 *2:60 0.00027819
45 *2:61 0.000131774
46 *2:62 0.000263548
47 *2:63 1.46416e-05
48 *2:64 0.000146416
49 *2:65 0.000102732
50 *2:66 1.4676e-05
51 *2:67 1.46416e-05
52 *2:69 0.000102732
53 *2:70 1.4676e-05
54 *2:71 0.00022014
55 *2:72 1.46416e-05
56 *2:74 0.00022014
57 *2:75 1.46416e-05
58 *2:77 0.000575312
59 *2 0.000575312

*RES
1 *2:77 *2 4.90917
2 *2:75 *254:C 1.4
3 *2:74 *2:77 1.4
4 *2:73 *155:A 1.4
5 *2:72 *2:75 0.124283
6 *2:71 *2:74 1.86433
7 *2:70 *2:73 1.4
8 *2:69 *2:72 1.4
9 *2:67 *2:71 1.4
10 *2:66 *2:70 0.124289
11 *2:65 *2:69 0.870021
12 *2:64 *257:B 1.4
13 *2:64 *2:67 0.124283
14 *2:63 *2:66 1.4
15 *2:62 *2:65 1.4
16 *2:61 *2:64 1.11854
17 *2:60 *2:63 0.124283
18 *2:60 *2:62 2.23709
19 *2:59 *2:61 1.4
20 *2:58 *2:60 1.4
21 *2:57 *2:59 0.124289
22 *2:57 *2:58 2.11291
23 *2:55 *2:57 1.4
24 *2:53 *227:A0 1.4
25 *2:52 *2:55 1.24283
26 *2:51 *285:C 1.4
27 *2:50 *2:53 1.4
28 *2:49 *2:52 1.4
29 *2:48 *2:51 1.4
30 *2:47 *2:50 1.61575
31 *2:47 *2:49 0.124289
32 *2:46 *2:48 1.1186
33 *2:44 *2:47 1.4
34 *2:43 *2:46 1.4
35 *2:41 *228:B 1.4
36 *2:41 *2:44 1.11854
37 *2:40 *2:43 1.24284
38 *2:40 *245:A 1.4
39 *2:39 *2:41 2.36137
40 *2:38 *2:40 3.23137
41 *2:37 *2:39 1.4
42 *2:36 *2:38 1.4
43 *2:35 *2:37 0.124289
44 *2:35 *2:36 0.372866
45 *2:33 *2:35 1.4
46 *2:31 *267:B 1.4
47 *2:30 *2:33 0.124283
48 *2:30 *295:B 1.4
49 *2:28 *2:31 0.248565
50 *2:27 *2:30 1.4
51 *2:26 *269:A 1.4
52 *2:25 *2:28 1.4
53 *2:25 *2:27 1.36718
54 *2:24 *2:26 1.4
55 *2:24 *2:25 1.74004
56 *2:23 *2:24 0.745732
57 *2:21 *2:23 1.4
58 *2:19 *279:B 1.4
59 *2:18 *2:21 2.2371
60 *2:18 *274:A 1.4
61 *2:17 *2:19 1.11855
62 *2:14 *2:18 1.11855
63 *2:13 *2:17 1.4
64 *2:12 *230:A 1.4
65 *2:11 *263:B 1.4
66 *2:10 *2:14 1.4
67 *2:10 *2:13 0.248577
68 *2:9 *2:12 1.24284
69 *2:8 *2:11 1.4
70 *2:8 *2:10 2.2372
71 *2:7 *2:9 1.4
72 *2:7 *2:8 1.74004
73 *2:6 *2:7 0.745732
74 *2:5 *2:6 1.4
75 *2:4 *2:5 2.2371
76 *2:3 *2:4 1.4
77 *2:2 *2:3 1.1186
78 *2:1 *2:2 1.4
79 *294:B *2:1 1.4
*END

*D_NET *3 0.00931351

*CONN
*I *289:B I *C 29.145 19.865 *L 0.00565 *D NOR3BX2
*I *245:B I *C 32.625 19.865 *L 0.0109 *D NOR2X4
*I *252:A1 I *C 33.785 22.475 *L 0.00271 *D OAI32X1
*I *234:B I *C 39.585 25.375 *L 0.0028 *D NOR2BX1
*I *285:B I *C 42.775 17.255 *L 0.022 *D NOR3X8
*I *228:C I *C 32.625 33.205 *L 0.00525 *D NOR3X2
*I *261:B I *C 38.425 35.235 *L 0.00542 *D NOR2X2
*I *269:B I *C 25.665 27.695 *L 0.0219 *D NOR2X8
*I *254:B I *C 40.165 43.065 *L 0.00272 *D NOR3X1
*I *156:A I *C 23.925 35.525 *L 0.0156 *D CLKINVX6
*I *274:B I *C 23.925 32.915 *L 0.0219 *D NOR2X8
*I *251:A I *C 43.065 35.525 *L 0.0111 *D NOR2X4
*I *279:C I *C 25.665 37.845 *L 0.017 *D NOR3X6
*P *3 I *C 53.94 29.725 *L 0

*CAP
1 *3:1 1.41333e-05
2 *3:2 1.41333e-05
3 *3:3 0.000173459
4 *3:4 0.000245733
5 *3:5 7.22745e-05
6 *3:6 1.41333e-05
7 *3:7 0.000113066
8 *3:8 1.41333e-05
9 *3:9 0.000254399
10 *3:11 0.000141333
11 *3:12 1.44549e-05
12 *3:13 0.000289098
13 *3:14 1.44549e-05
14 *3:15 0.000390282
15 *3:16 1.44549e-05
16 *3:18 0.000115639
17 *3:20 0.000408693
18 *3:22 0.000395731
19 *3:24 0.000408693
20 *3:25 0.000395731
21 *3:26 0.000322872
22 *3:27 4.33647e-05
23 *3:28 0.000264168
24 *3:29 5.87041e-05
25 *3:30 4.33647e-05
26 *3:31 8.78494e-05
27 *3:32 1.46416e-05
28 *3:34 8.78494e-05
29 *3:35 1.46416e-05
30 *3:37 8.80561e-05
31 *3:38 0.000351001
32 *3:39 5.87041e-05
33 *3:40 2.9352e-05
34 *3:42 0.000434163
35 *3:43 1.46416e-05
36 *3:46 0.000257523
37 *3:47 8.31625e-05
38 *3:48 0.000395322
39 *3:50 0.000257523
40 *3:51 0.000121985
41 *3:52 0.00014676
42 *3:53 0.000380681
43 *3:55 0.000216862
44 *3:56 1.35539e-05
45 *3:57 0.000679994
46 *3:59 0.000108431
47 *3:62 0.000533234
48 *3:64 8.31625e-05
49 *3:65 0.000260927
50 *3:67 8.31625e-05
51 *3:68 0.000260927
52 *3:70 6.44901e-06
53 *3 6.44901e-06

*RES
1 *3:70 *3 0.0621421
2 *3:69 *279:C 1.4
3 *3:68 *3:70 1.4
4 *3:67 *3:69 1.4
5 *3:65 *3:68 2.48568
6 *3:64 *3:67 0.745732
7 *3:63 *251:A 1.4
8 *3:62 *3:65 1.4
9 *3:59 *3:64 1.4
10 *3:57 *3:63 1.4
11 *3:57 *3:62 4.59866
12 *3:56 *274:B 1.4
13 *3:55 *156:A 1.4
14 *3:55 *3:59 0.994268
15 *3:53 *254:B 1.4
16 *3:52 *3:57 1.24289
17 *3:51 *3:56 0.124284
18 *3:51 *3:55 0.994268
19 *3:50 *269:B 1.4
20 *3:48 *3:53 3.23135
21 *3:48 *3:52 1.4
22 *3:47 *3:51 1.4
23 *3:46 *3:50 2.36139
24 *3:44 *261:B 1.4
25 *3:43 *3:48 0.124283
26 *3:42 *3:47 0.745732
27 *3:42 *3:46 1.4
28 *3:41 *228:C 1.4
29 *3:40 *3:44 1.4
30 *3:39 *3:43 1.4
31 *3:38 *3:42 2.98293
32 *3:38 *3:41 1.4
33 *3:37 *3:40 0.248578
34 *3:37 *3:39 0.497155
35 *3:35 *3:38 1.4
36 *3:34 *3:37 1.4
37 *3:33 *285:B 1.4
38 *3:32 *3:35 0.124283
39 *3:31 *3:34 0.745696
40 *3:30 *3:33 1.4
41 *3:29 *3:32 1.4
42 *3:28 *3:31 1.4
43 *3:27 *3:30 0.372866
44 *3:26 *3:29 0.497155
45 *3:26 *3:28 2.2372
46 *3:25 *3:27 1.4
47 *3:24 *3:26 1.4
48 *3:22 *3:25 3.47994
49 *3:20 *3:24 3.47992
50 *3:19 *234:B 1.4
51 *3:18 *3:22 1.4
52 *3:17 *252:A1 1.4
53 *3:16 *3:20 1.4
54 *3:15 *3:19 1.4
55 *3:15 *3:18 0.99431
56 *3:14 *3:17 1.4
57 *3:13 *3:16 0.124289
58 *3:13 *3:15 2.36149
59 *3:12 *3:14 0.124289
60 *3:11 *3:13 1.4
61 *3:9 *3:12 1.4
62 *3:9 *3:11 1.24284
63 *3:8 *245:B 1.4
64 *3:7 *3:9 0.994269
65 *3:6 *3:8 0.124284
66 *3:5 *3:7 1.4
67 *3:4 *3:6 1.4
68 *3:4 *3:5 0.621444
69 *3:3 *3:4 1.49146
70 *3:2 *3:3 1.4
71 *3:1 *3:2 0.124284
72 *289:B *3:1 1.4
*END

*D_NET *4 0.00114168

*CONN
*I *221:A I *C 12.035 16.965 *L 0.00273 *D CLKINVX1
*P *4 I *C 0 16.965 *L 0

*CAP
1 *4:2 0.000570838
2 *4 0.000570838

*RES
1 *4:2 *4 5.15776
2 *4:1 *4:2 1.4
3 *221:A *4:1 1.4
*END

*D_NET *5 0.000976615

*CONN
*I *222:A I *C 10.295 22.185 *L 0.00273 *D CLKINVX1
*P *5 I *C 0 22.185 *L 0

*CAP
1 *5:2 0.000488307
2 *5 0.000488307

*RES
1 *5:2 *5 4.41206
2 *5:1 *5:2 1.4
3 *222:A *5:1 1.4
*END

*D_NET *6 0.000928648

*CONN
*I *220:A I *C 9.715 32.625 *L 0.00273 *D CLKINVX1
*P *6 I *C 0 32.625 *L 0

*CAP
1 *6:2 0.000464324
2 *6 0.000464324

*RES
1 *6:2 *6 4.16367
2 *6:1 *6:2 1.4
3 *220:A *6:1 1.4
*END

*D_NET *7 0.00123358

*CONN
*I *223:A I *C 12.905 27.405 *L 0.00273 *D CLKINVX1
*P *7 I *C 0 27.405 *L 0

*CAP
1 *7:2 0.000616789
2 *7 0.000616789

*RES
1 *7:2 *7 5.53085
2 *7:1 *7:2 1.4
3 *223:A *7:1 1.4
*END

*D_NET *8 0.000974926

*CONN
*I *253:A1 I *C 41.905 43.065 *L 0.00278 *D AOI21X1
*P *8 I *C 41.905 52.78 *L 0

*CAP
1 *8:1 0.000487463
2 *8 0.000487463

*RES
1 *8:1 *8 4.16348
2 *253:A1 *8:1 1.4
*END

*D_NET *9 0.000932605

*CONN
*I *259:A I *C 44.515 37.845 *L 0.00784 *D INVX3
*P *9 I *C 53.94 37.845 *L 0

*CAP
1 *9:2 0.000466303
2 *9 0.000466303

*RES
1 *9:2 *9 4.03936
2 *9:1 *9:2 1.4
3 *259:A *9:1 1.4
*END

*D_NET *10 0.001707

*CONN
*I *227:A1 I *C 29.725 35.815 *L 0.00269 *D AOI31X1
*P *10 I *C 29.725 52.78 *L 0

*CAP
1 *10:3 0.000853502
2 *10 0.000853502

*RES
1 *10:3 *10 7.27054
2 *10:2 *10:3 1.4
3 *10:1 *10:2 1.4
4 *227:A1 *10:1 1.4
*END

*D_NET *11 0.00202912

*CONN
*I *276:B0 I *C 30.305 32.625 *L 0.00265 *D AOI22X1
*P *11 I *C 30.305 52.78 *L 0

*CAP
1 *11:3 0.00101456
2 *11 0.00101456

*RES
1 *11:3 *11 8.63765
2 *11:2 *11:3 1.4
3 *11:1 *11:2 1.4
4 *276:B0 *11:1 1.4
*END

*D_NET *12 0.0049102

*CONN
*I *210:B I *C 12.9 14.305 *L 0.00164 *D MXI2XL
*I *231:A I *C 14.355 14.935 *L 0.00273 *D CLKINVX1
*I *197:A1 I *C 14.355 12.325 *L 0.00166 *D OAI21XL
*I *211:A I *C 17.835 11.745 *L 0.00162 *D NOR2XL
*I *184:A1N I *C 13.195 12.035 *L 0.0017 *D OAI2BB1X1
*I *216:A I *C 18.995 19.865 *L 0.00157 *D NAND2XL
*P *154 O *C 18.125 0 *L 0
*I *289:AN I *C 28.275 19.865 *L 0.00171 *D NOR3BX2
*P *12 O *C 18.705 0 *L 0
*I *157:Q O *C 17.545 22.185 *L 0 *D DFFQX4
*I *212:A I *C 30.595 14.645 *L 0.00157 *D NAND2XL

*CAP
1 *12:1 2.35462e-07
2 *12:2 1.15377e-05
3 *12:3 1.13022e-05
4 *12:4 6.87757e-05
5 *12:5 6.87757e-05
6 *12:6 9.55977e-05
7 *12:7 4.09705e-05
8 *12:8 6.82841e-05
9 *12:10 0.000165062
10 *12:11 2.73136e-05
11 *12:12 0.000178817
12 *12:13 5.50205e-05
13 *12:14 1.36568e-05
14 *12:15 1.37551e-05
15 *12:16 5.46273e-05
16 *12:17 5.50205e-05
17 *12:19 0.000327764
18 *12:20 0.000587243
19 *12:21 2.73136e-05
20 *12:22 0.000327764
21 *12:24 0.000532616
22 *12:25 2.73136e-05
23 *12:26 5.50205e-05
24 *12:27 1.37551e-05
25 *12:29 0.000486678
26 *12:30 1.37551e-05
27 *12:31 4.12654e-05
28 *12:32 0.000445413
29 *12:34 0.000109255
30 *12:35 2.75103e-05
31 *12:36 2.04852e-05
32 *12:37 0.000240265
33 *12:39 0.000109255
34 *12:40 2.04852e-05
35 *154 2.04852e-05
36 *12:43 0.000240265
37 *12:44 1.37551e-05
38 *12 2.04852e-05
39 *12:46 0.000115639
40 *12:47 1.37551e-05
41 *12:48 0.000115639
42 *12:50 1.41333e-05
43 *12:52 1.41333e-05

*RES
1 *12:52 *212:A 1.4
2 *12:50 *12:52 0.124284
3 *12:49 *157:Q 1.4
4 *12:48 *12:50 1.4
5 *12:47 *12:49 1.4
6 *12:46 *12:48 0.99431
7 *12:44 *12:47 0.124283
8 *12:43 *12:46 1.4
9 *12:40 *12 0.186433
10 *12:39 *12:44 1.4
11 *12:37 *12:43 2.11282
12 *12:37 *289:AN 1.4
13 *12:36 *154 0.186433
14 *12:35 *12:40 1.4
15 *12:34 *12:39 0.99431
16 *12:33 *216:A 1.4
17 *12:32 *12:37 1.4
18 *12:31 *12:36 1.4
19 *12:31 *12:35 0.248567
20 *12:30 *12:34 1.4
21 *12:29 *12:33 1.4
22 *12:29 *12:32 3.97711
23 *12:27 *12:31 0.124283
24 *12:26 *12:30 0.124283
25 *12:26 *12:29 0.37285
26 *12:25 *184:A1N 1.4
27 *12:24 *12:27 1.4
28 *12:22 *12:26 1.4
29 *12:21 *12:25 0.248578
30 *12:20 *12:24 4.84726
31 *12:20 *211:A 1.4
32 *12:19 *12:22 2.98293
33 *12:17 *12:21 1.4
34 *12:16 *12:20 0.497155
35 *12:15 *12:19 1.4
36 *12:14 *197:A1 1.4
37 *12:13 *12:17 0.497134
38 *12:12 *12:16 1.4
39 *12:12 *12:15 0.124283
40 *12:11 *12:14 0.124289
41 *12:11 *12:13 1.4
42 *12:10 *12:12 1.4914
43 *12:8 *12:11 0.124289
44 *12:8 *12:10 1.4
45 *12:7 *231:A 1.4
46 *12:6 *12:8 0.497155
47 *12:6 *12:7 0.372866
48 *12:5 *12:6 1.4
49 *12:4 *12:5 0.621417
50 *12:3 *12:4 1.4
51 *12:2 *12:3 0.10286
52 *12:1 *12:2 0.00214291
53 *210:B *12:1 1.4
*END

*D_NET *13 0.00490756

*CONN
*I *239:A I *C 37.845 14.935 *L 0.00264 *D NAND3X1
*I *243:A I *C 36.395 12.035 *L 0.00157 *D NAND2XL
*I *213:A I *C 34.075 11.745 *L 0.00162 *D NOR2XL
*I *240:A I *C 33.205 11.745 *L 0.00273 *D CLKINVX1
*P *13 O *C 32.915 0 *L 0
*I *215:A I *C 30.885 11.745 *L 0.00162 *D NOR2XL
*I *267:A I *C 30.595 27.405 *L 0.00264 *D NAND3X1
*I *158:Q O *C 34.075 30.885 *L 0 *D DFFHQX1
*I *266:A I *C 27.405 30.595 *L 0.00264 *D NAND3X1

*CAP
1 *13:1 1.41333e-05
2 *13:2 1.41333e-05
3 *13:3 7.22745e-05
4 *13:4 7.22745e-05
5 *13:5 0.000127199
6 *13:6 0.000155466
7 *13:8 2.82665e-05
8 *13:9 0.000115639
9 *13:10 0.000115639
10 *13:11 1.41333e-05
11 *13:12 1.41333e-05
12 *13:14 4.33647e-05
13 *13:15 5.78196e-05
14 *13:17 1.44549e-05
15 *13:19 0.000600663
16 *13:20 2.82665e-05
17 *13 0.000572397
18 *13:22 0.000101184
19 *13:23 0.000115639
20 *13:24 2.82665e-05
21 *13:25 1.44549e-05
22 *13:26 2.82665e-05
23 *13:27 0.000737217
24 *13:29 0.000898274
25 *13:30 0.000175699
26 *13:32 0.000176112
27 *13:33 1.46416e-05
28 *13:35 0.000176112
29 *13:36 0.000161436
30 *13:38 1.46416e-05
31 *13:39 0.000161436
32 *13:40 1.46416e-05
33 *13:41 1.46416e-05
34 *13:43 1.46416e-05

*RES
1 *13:43 *266:A 1.4
2 *13:41 *13:43 0.124283
3 *13:40 *158:Q 1.4
4 *13:39 *13:41 1.4
5 *13:38 *13:40 0.124283
6 *13:36 *13:39 1.36718
7 *13:35 *13:38 1.4
8 *13:34 *267:A 1.4
9 *13:33 *13:36 1.4
10 *13:32 *13:35 1.49147
11 *13:31 *13:34 1.4
12 *13:30 *13:33 0.124283
13 *13:30 *13:32 1.4
14 *13:29 *13:31 1.4
15 *13:29 *13:30 1.36711
16 *13:27 *13:29 6.46274
17 *13:26 *215:A 1.4
18 *13:25 *13:27 1.4
19 *13:24 *13:26 0.248567
20 *13:23 *13:25 0.124289
21 *13:23 *13:24 1.4
22 *13:22 *13:23 0.870021
23 *13:20 *13:22 1.4
24 *13:19 *13 5.03348
25 *13:19 *13:20 0.248567
26 *13:17 *13:19 1.4
27 *13:16 *240:A 1.4
28 *13:15 *13:17 0.124289
29 *13:15 *13:16 1.4
30 *13:14 *13:15 0.372866
31 *13:12 *13:14 1.4
32 *13:12 *213:A 1.4
33 *13:11 *13:12 0.124284
34 *13:10 *13:11 1.4
35 *13:9 *13:10 0.99431
36 *13:8 *13:9 1.4
37 *13:6 *13:8 0.248567
38 *13:6 *243:A 1.4
39 *13:5 *13:6 1.11855
40 *13:4 *13:5 1.4
41 *13:3 *13:4 0.621444
42 *13:2 *13:3 1.4
43 *13:1 *13:2 0.124284
44 *239:A *13:1 1.4
*END

*D_NET *14 0.00223455

*CONN
*I *181:B0 I *C 43.065 27.405 *L 0.00159 *D AOI22XL
*P *14 O *C 53.94 25.375 *L 0
*I *218:B I *C 41.035 27.405 *L 0.0028 *D NOR2BX1
*I *217:A I *C 41.035 25.085 *L 0.00157 *D NAND2XL
*I *234:AN I *C 40.165 25.085 *L 0.00174 *D NOR2BX1
*I *159:Q O *C 39.295 21.895 *L 0 *D DFFHQX1

*CAP
1 *14:1 0.000115862
2 *14:2 1.46416e-05
3 *14:3 0.00010122
4 *14:4 0.000102732
5 *14:5 0.00052649
6 *14:6 0.000102732
7 *14 0.00052649
8 *14:8 1.46416e-05
9 *14:9 0.000129995
10 *14:11 0.000115353
11 *14:13 4.33647e-05
12 *14:14 8.67294e-05
13 *14:16 4.33647e-05
14 *14:18 0.000155466
15 *14:19 0.000155466

*RES
1 *14:19 *159:Q 1.4
2 *14:18 *14:19 1.36712
3 *14:16 *14:18 1.4
4 *14:15 *234:AN 1.4
5 *14:14 *14:16 0.372866
6 *14:14 *14:15 1.4
7 *14:13 *14:14 0.372866
8 *14:11 *14:13 1.4
9 *14:11 *217:A 1.4
10 *14:9 *14:11 0.994265
11 *14:9 *218:B 1.4
12 *14:8 *14:9 0.124283
13 *14:6 *14:8 1.4
14 *14:5 *14 4.66081
15 *14:4 *14:6 0.870021
16 *14:3 *14:5 1.4
17 *14:2 *14:4 1.4
18 *14:1 *14:3 0.869981
19 *14:1 *14:2 0.124283
20 *181:B0 *14:1 1.4
*END

*D_NET *15 0.00143855

*CONN
*I *255:B I *C 38.715 41.035 *L 0.00168 *D NAND2BXL
*P *15 O *C 39.005 52.78 *L 0
*I *164:Q O *C 39.295 41.325 *L 0 *D DFFHQX1
*I *280:A I *C 39.285 43.2925 *L 0.00163 *D INVXL

*CAP
1 *15:2 1.4676e-05
2 *15:3 1.4676e-05
3 *15:4 1.46416e-05
4 *15:5 0.000589954
5 *15:6 1.4676e-05
6 *15 0.000575312
7 *15:8 1.4676e-05
8 *15:9 9.94617e-05
9 *15:10 9.99666e-05
10 *15:12 5.04882e-07

*RES
1 *15:12 *280:A 1.4
2 *15:10 *15:12 0.00428561
3 *15:9 *164:Q 1.4
4 *15:9 *15:10 0.844265
5 *15:8 *15:9 1.4
6 *15:6 *15:8 0.124289
7 *15:5 *15 4.90917
8 *15:5 *15:6 1.4
9 *15:4 *15:5 0.124283
10 *15:3 *15:4 1.4
11 *15:2 *15:3 0.124289
12 *15:1 *15:2 1.4
13 *255:B *15:1 1.4
*END

*D_NET *16 0.00184298

*CONN
*I *249:B I *C 32.045 41.035 *L 0.00168 *D NAND2BXL
*I *163:Q O *C 29.145 42.775 *L 0 *D DFFHQX1
*I *290:A I *C 28.845 40.8075 *L 0.00163 *D INVXL
*P *16 O *C 30.015 52.78 *L 0

*CAP
1 *16:1 4.39247e-05
2 *16:2 4.39247e-05
3 *16:3 0.00014676
4 *16:4 0.00014676
5 *16:5 7.32078e-05
6 *16:6 0.000131774
7 *16:7 0.000146416
8 *16:8 1.4676e-05
9 *16:9 8.78494e-05
10 *16:11 1.4676e-05
11 *16:12 1.4676e-05
12 *16:13 4.0643e-05
13 *16:14 1.4676e-05
14 *16:15 4.11478e-05
15 *16:16 0.000407692
16 *16:17 5.04882e-07
17 *16:18 0.000407692
18 *16:20 2.64267e-05
19 *16:21 2.64267e-05
20 *16:22 6.5634e-06
21 *16 6.5634e-06

*RES
1 *16:22 *16 0.0621431
2 *16:21 *16:22 1.4
3 *16:20 *16:21 0.248568
4 *16:18 *16:20 1.4
5 *16:17 *290:A 1.4
6 *16:16 *16:18 3.47992
7 *16:15 *16:17 0.00428561
8 *16:14 *16:16 1.4
9 *16:13 *16:15 0.344992
10 *16:12 *16:14 0.124289
11 *16:11 *16:13 1.4
12 *16:9 *16:12 1.4
13 *16:8 *16:11 0.124289
14 *16:7 *163:Q 1.4
15 *16:7 *16:9 0.745696
16 *16:6 *16:8 1.4
17 *16:6 *16:7 0.497131
18 *16:5 *16:6 0.621413
19 *16:4 *16:5 1.4
20 *16:3 *16:4 1.24289
21 *16:2 *16:3 1.4
22 *16:1 *16:2 0.372848
23 *249:B *16:1 1.4
*END

*D_NET *17 0.00257511

*CONN
*I *229:B I *C 31.755 35.815 *L 0.00284 *D NAND2BX1
*I *192:AN I *C 27.985 32.915 *L 0.00174 *D NOR2BX1
*I *162:Q O *C 27.695 37.555 *L 0 *D DFFHQX1
*P *17 O *C 29.145 52.78 *L 0

*CAP
1 *17:1 1.46416e-05
2 *17:2 1.46416e-05
3 *17:3 0.000190788
4 *17:4 0.000205464
5 *17:5 0.000161057
6 *17:6 1.4676e-05
7 *17:7 0.000161057
8 *17:8 7.32078e-05
9 *17:10 0.000161057
10 *17:11 8.78494e-05
11 *17:13 1.4676e-05
12 *17:14 1.4676e-05
13 *17:15 0.00067124
14 *17:16 0.00067124
15 *17:17 5.28533e-05
16 *17:18 5.28533e-05
17 *17:19 6.5634e-06
18 *17 6.5634e-06

*RES
1 *17:19 *17 0.0621431
2 *17:18 *17:19 1.4
3 *17:17 *17:18 0.497137
4 *17:16 *17:17 1.4
5 *17:15 *17:16 5.71701
6 *17:14 *17:15 1.4
7 *17:13 *17:14 0.124289
8 *17:11 *17:13 1.4
9 *17:10 *162:Q 1.4
10 *17:10 *17:11 0.745696
11 *17:8 *17:10 0.621413
12 *17:7 *192:AN 1.4
13 *17:6 *17:8 1.4
14 *17:5 *17:7 1.36711
15 *17:4 *17:6 0.124289
16 *17:4 *17:5 1.4
17 *17:3 *17:4 1.61575
18 *17:2 *17:3 1.4
19 *17:1 *17:2 0.124283
20 *229:B *17:1 1.4
*END

*D_NET *18 0.00227275

*CONN
*I *284:B0 I *C 38.135 27.405 *L 0.00159 *D AOI22XL
*I *283:A I *C 37.265 30.595 *L 0.00267 *D NAND2X1
*I *167:Q O *C 39.295 32.335 *L 0 *D DFFHQX1
*I *282:A I *C 43.055 30.3675 *L 0.00163 *D INVXL
*P *18 O *C 53.94 30.305 *L 0

*CAP
1 *18:2 1.4676e-05
2 *18:3 1.4676e-05
3 *18:4 7.32078e-05
4 *18:5 7.32078e-05
5 *18:6 1.4676e-05
6 *18:7 1.4676e-05
7 *18:8 8.78494e-05
8 *18:9 8.78494e-05
9 *18:10 0.000102732
10 *18:11 0.000249492
11 *18:12 4.40281e-05
12 *18:13 8.78494e-05
13 *18:14 0.000724022
14 *18:16 8.78494e-05
15 *18:17 0.000533234
16 *18:18 1.13598e-05
17 *18:21 1.30464e-05
18 *18:22 1.18647e-05
19 *18:23 1.30464e-05
20 *18:24 5.04882e-07
21 *18:25 6.44901e-06
22 *18 6.44901e-06

*RES
1 *18:25 *18 0.0621421
2 *18:24 *282:A 1.4
3 *18:23 *18:25 1.4
4 *18:22 *18:24 0.00428561
5 *18:21 *18:23 0.124284
6 *18:18 *18:22 0.0964262
7 *18:17 *18:21 1.4
8 *18:16 *167:Q 1.4
9 *18:15 *283:A 1.4
10 *18:14 *18:18 1.4
11 *18:14 *18:17 4.59866
12 *18:13 *18:16 0.745696
13 *18:12 *18:15 1.4
14 *18:11 *18:14 1.61575
15 *18:11 *18:13 1.4
16 *18:10 *18:12 0.372866
17 *18:10 *18:11 0.497155
18 *18:9 *18:10 1.4
19 *18:8 *18:9 0.745696
20 *18:7 *18:8 1.4
21 *18:6 *18:7 0.124289
22 *18:5 *18:6 1.4
23 *18:4 *18:5 0.621413
24 *18:3 *18:4 1.4
25 *18:2 *18:3 0.124289
26 *18:1 *18:2 1.4
27 *284:B0 *18:1 1.4
*END

*D_NET *19 0.00131836

*CONN
*I *251:B I *C 41.325 35.525 *L 0.0109 *D NOR2X4
*I *258:B I *C 40.455 37.845 *L 0.0028 *D NOR2X1
*I *155:Y O *C 39.005 38.425 *L 0 *D CLKINVX6
*I *260:A I *C 38.715 32.625 *L 0.00267 *D NAND2X1

*CAP
1 *19:2 2.9352e-05
2 *19:3 2.9352e-05
3 *19:4 0.000161057
4 *19:5 0.000161057
5 *19:6 1.4676e-05
6 *19:7 8.80561e-05
7 *19:8 4.39247e-05
8 *19:9 8.80561e-05
9 *19:10 4.39247e-05
10 *19:11 1.46416e-05
11 *19:12 1.4676e-05
12 *19:14 1.46416e-05
13 *19:15 0.000307473
14 *19:17 0.000307473

*RES
1 *19:17 *260:A 1.4
2 *19:15 *19:17 2.60994
3 *19:14 *155:Y 1.4
4 *19:12 *19:15 1.4
5 *19:11 *19:14 0.124283
6 *19:10 *258:B 1.4
7 *19:9 *19:12 0.124289
8 *19:9 *19:11 1.4
9 *19:8 *19:10 0.372848
10 *19:7 *19:9 0.621444
11 *19:7 *19:8 1.4
12 *19:6 *19:7 0.124289
13 *19:5 *19:6 1.4
14 *19:4 *19:5 1.36711
15 *19:3 *19:4 1.4
16 *19:2 *19:3 0.248578
17 *19:1 *19:2 1.4
18 *251:B *19:1 1.4
*END

*D_NET *20 0.00464782

*CONN
*I *256:B0 I *C 35.235 41.035 *L 0.0028 *D OAI21X1
*I *227:A2 I *C 30.305 35.815 *L 0.00276 *D AOI31X1
*I *266:C I *C 26.825 30.595 *L 0.00285 *D NAND3X1
*I *267:C I *C 30.015 27.405 *L 0.00285 *D NAND3X1
*I *156:Y O *C 24.215 35.235 *L 0 *D CLKINVX6
*I *230:B I *C 14.645 32.915 *L 0.0166 *D NAND2X6
*I *262:A I *C 14.355 35.815 *L 0.00267 *D NAND2X1
*I *292:B0 I *C 13.195 40.745 *L 0.0028 *D OAI211X1

*CAP
1 *20:1 0.000263548
2 *20:2 0.000263548
3 *20:3 0.000249492
4 *20:4 0.000425604
5 *20:6 0.000176112
6 *20:8 5.85663e-05
7 *20:9 0.000263548
8 *20:10 2.9352e-05
9 *20:11 0.00027819
10 *20:12 2.9352e-05
11 *20:14 7.32078e-05
12 *20:15 2.92831e-05
13 *20:16 0.000161436
14 *20:17 2.92831e-05
15 *20:18 0.000161436
16 *20:19 9.74307e-05
17 *20:20 8.78494e-05
18 *20:21 0.000554824
19 *20:22 8.78494e-05
20 *20:24 0.000471254
21 *20:27 0.000108431
22 *20:28 1.38604e-05
23 *20:29 0.000108431
24 *20:30 2.71077e-05
25 *20:32 4.06616e-05
26 *20:33 1.35539e-05
27 *20:35 5.54417e-05
28 *20:36 5.54417e-05
29 *20:37 0.000216862
30 *20:38 0.000216862

*RES
1 *20:38 *292:B0 1.4
2 *20:37 *20:38 1.98854
3 *20:36 *20:37 1.4
4 *20:35 *20:36 0.497155
5 *20:33 *20:35 1.4
6 *20:32 *262:A 1.4
7 *20:32 *20:33 0.124284
8 *20:30 *20:32 0.248567
9 *20:29 *230:B 1.4
10 *20:28 *20:30 1.4
11 *20:27 *20:29 0.994268
12 *20:24 *20:28 0.124289
13 *20:24 *20:27 1.4
14 *20:23 *156:Y 1.4
15 *20:22 *267:C 1.4
16 *20:21 *20:24 4.10153
17 *20:21 *20:23 1.4
18 *20:20 *20:22 0.745696
19 *20:19 *20:21 0.870021
20 *20:18 *20:20 1.4
21 *20:17 *20:19 1.4
22 *20:16 *20:18 1.36718
23 *20:15 *20:17 0.248565
24 *20:14 *20:16 1.4
25 *20:12 *20:15 1.4
26 *20:11 *20:14 0.621413
27 *20:11 *266:C 1.4
28 *20:10 *20:12 0.248578
29 *20:9 *20:11 1.73996
30 *20:9 *20:10 1.4
31 *20:8 *20:9 0.497131
32 *20:6 *20:8 1.4
33 *20:5 *227:A2 1.4
34 *20:4 *20:6 1.49147
35 *20:4 *20:5 1.4
36 *20:3 *20:4 2.11291
37 *20:2 *20:3 1.4
38 *20:1 *20:2 2.23709
39 *256:B0 *20:1 1.4
*END

*D_NET *21 0.000687503

*CONN
*I *291:A I *C 14.355 41.035 *L 0.00521 *D CLKINVX2
*I *294:A I *C 11.455 41.035 *L 0.0111 *D NAND2X4
*I *194:Q O *C 9.715 43.355 *L 0 *D DFFHQX2

*CAP